test/data/three_phase/three_transformers_with_lines/result.csv
# result.csv run at 2000-01-01 00:00:00 EST on 18 powerflow objects (not all are nodes)
node_name,voltA_real,voltA_imag,voltB_real,voltB_imag,voltC_real,voltC_imag
node1,7200.000000,0.000000,-3600.000000,-6235.382907,-3600.000000,6235.382907
node2,2239.272578,-124.254013,-1227.692967,-1890.221059,-1006.386752,1994.867780
node3,1989.662450,-248.037406,-1272.730345,-1660.554932,-750.896079,1808.958923
node4,5476.639373,-1115.979326,-3895.259304,-4408.409548,-1667.624257,5166.953388
node5,5393.369274,-1157.273545,-3910.283802,-4331.792781,-1582.392405,5104.934074
load1,1636.579409,-510.321210,-1331.203843,-1255.182172,-333.311564,1617.749324
